     768
# CELL(abcABC):  19.2435789  20.1232006  19.8520657  90.0000000  90.0000000  90.0000000  Step:  200000  Bead:       0 x_centroid{angstrom}  cell{angstrom}      
   O     7.5946200  14.5223000  19.6072000
   H     6.9385600  14.2587000  20.2634157
   H     8.0166531  13.6868157  19.3527317
   O     1.0094400  15.5787000   1.1445400
   H     0.1398820  15.4010000   1.5216500
   H     1.5207365  14.7789537   1.1830340
   O    16.1408000   7.7754700  17.5826000
   H    15.7429130   8.1839140  18.3424417
   H    15.6758000   7.9913900  16.7601000
   O     1.3634100   2.8229400  16.4810000
   H     1.4734840   2.5253018  17.3976216
   H     0.5846472   3.3861649  16.6121729
   O    14.8997000  15.6711000   5.2727000
   H    14.3459260  15.0563806   5.7790146
   H    14.2983828  16.3013892   4.8460230
   O     5.9385700  13.6757000   2.1502300
   H     6.1598500  14.4324000   2.7109000
   H     6.4682440  12.8917252   2.3640736
   O     2.2398600  10.7800000  10.2884000
   H     2.3354206  11.5645067  10.8508210
   H     1.3033231  10.8099650  10.0375996
   O    14.0425000   0.9602710  17.0970000
   H    14.7584856   1.2605514  16.5155395
   H    14.4702875   0.3687051  17.7357078
   O    13.4472000   6.7949400   6.1519900
   H    13.1468000   6.6808400   5.2554700
   H    12.7125135   6.3598849   6.6122757
   O     8.7136200   5.4439900  10.6555000
   H     8.7271342   5.0388912   9.7742439
   H     9.5192962   5.9826444  10.6959651
   O     6.9262100   6.2805300   0.7037390
   H     7.0661537   5.6351126  -0.0067202
   H     7.7900408   6.5423785   0.9999342
   O    18.6516000  12.7725000  18.9631000
   H    17.6948000  12.9050000  18.9338000
   H    18.8582642  12.0798430  18.3162490
   O     5.1038300   9.5897600  13.1721000
   H     4.2993022   9.7359525  13.6938881
   H     4.7836700   9.4104400  12.2838000
   O     2.5423000   3.0113000   9.1090300
   H     1.9776800   2.5547400   9.7480700
   H     3.3591011   3.2789472   9.5585864
   O    13.2628000   3.4328900   9.1833900
   H    13.1533991   3.4664817   8.2403083
   H    13.0012842   2.5307185   9.4254565
   O    15.8308000  13.4767000  19.0691000
   H    15.1189834  12.8585202  19.2972905
   H    15.3682149  14.3044076  19.2735879
   O     9.2879200  14.9513000   2.3711000
   H     9.9177900  14.8909000   1.6554800
   H     8.4694405  15.1140192   1.8766167
   O     8.4300300   8.7573600  13.3526000
   H     7.6623948   8.3804683  13.7663496
   H     8.8501629   9.1788304  14.1185968
   O     8.0301900  18.7979000  11.2826000
   H     7.5113100  18.5110000  10.5206000
   H     8.2711100  19.6925000  11.0177000
   O     0.8137330   3.7432700   2.2537100
   H     1.6000114   3.3112394   1.8849066
   H     0.1585420   3.0421300   2.3337500
   O     6.2004500   6.7265500  13.8198000
   H     5.4924800   6.9893900  14.4272000
   H     6.7224057   6.0788077  14.3186911
   O     3.5371100   2.2101100   1.9468500
   H     4.0356181   2.9624601   1.6502713
   H     3.3549054   2.2091576   2.8995832
   O    14.7730000  19.7380000  12.7518000
   H    15.2253000  20.4216956  12.2416000
   H    15.3966487  19.4511551  13.4371337
   O    13.0951000  11.3536000  14.2454000
   H    13.1026146  11.7041805  15.1283138
   H    13.9592000  11.5842000  13.8759000
   O     1.6047000   7.3280500   5.3235900
   H     0.6849928   7.4334469   5.0338830
   H     1.6606210   7.6858592   6.2018527
   O    13.2537000   3.0884900   6.1799200
   H    12.3147719   2.8760624   6.0608044
   H    13.5363000   3.8244900   5.6267300
   O    10.9219000  20.0733000   7.1602700
   H    11.7263687  19.9936477   6.6241864
   H    10.7942000  19.1647000   7.4521200
   O    15.4764000   9.4360600   8.8640900
   H    14.7039695   9.1621602   8.3452161
   H    16.1978825   8.8495957   8.5876436
   O     3.2415200   0.1657890   8.1118400
   H     2.9286822   0.4786297   8.9750684
   H     4.1858100   0.2548890   8.2130300
   O    18.5957000  12.9108000   5.1088200
   H    17.9612179  13.5244662   5.4600268
   H    18.3243578  12.1096356   5.5835926
   O     2.7568700  19.1233000   3.3403900
   H     3.1490400  19.7297000   3.9599500
   H     2.8481975  18.2676716   3.7429560
   O     3.9557700  10.8686000  17.3290000
   H     3.5604713  11.6802308  17.6838161
   H     3.4401900  10.5736000  16.5803000
   O    17.7981000  15.7509000  18.1388000
   H    18.3105870  16.0794935  17.3836289
   H    18.0199822  14.8171209  18.2792456
   O     7.2838900   0.8921750   5.9536100
   H     8.0209108   0.2667769   5.8725071
   H     6.6246917   0.4659198   5.3838169
   O    15.3857000  11.2609000  16.1812000
   H    15.1554000  10.9556000  17.0677000
   H    15.3359414  10.4511731  15.6494420
   O     6.6211200  10.3734000  15.9189000
   H     5.8413039  10.2326444  16.4783415
   H     6.2801054  10.1223616  15.0462094
   O     2.6419900   8.8049700   2.2296100
   H     1.9127578   8.2028069   2.0139250
   H     2.4294300   9.7098400   1.9870400
   O    11.1520000   2.9878900  19.3169000
   H    11.2044751   3.3134018  18.4046563
   H    11.7122000   2.2023400  19.2618000
   O    12.1603000   0.8242710   9.8819800
   H    12.2779587   0.1481670  10.5675016
   H    11.2246571   1.0052657  10.0628481
   O    15.4096000  14.3184000   2.6927200
   H    15.3325071  15.0160157   3.3622639
   H    15.2155000  13.4440000   3.0190600
   O    17.9520000   5.8674600  14.2435000
   H    17.6631700   6.1078906  13.3492571
   H    18.8052776   6.3276979  14.2750992
   O    12.8841000  17.5081000  17.7359000
   H    12.2158858  16.8276311  17.5588353
   H    12.5545630  18.0300351  18.4841575
   O     5.1888200   3.5161400  16.4868000
   H     5.1490665   2.6375639  16.8959745
   H     5.6725100   4.0238500  17.1450000
   O     5.3076800  13.9428000  10.1599000
   H     4.8418681  14.2805253  10.9408360
   H     4.6218630  13.8425874   9.4812892
   O    15.8076000   2.6559700  15.7793000
   H    16.7062768   2.9347257  16.0150441
   H    15.9418000   2.4821700  14.8364000
   O     6.7653400  16.5935000  12.6897000
   H     6.9799567  16.3308631  11.7809307
   H     7.6292033  16.7376415  13.0577536
   O     3.2754100  15.7021000  16.7511000
   H     3.0515000  15.7529000  15.8238000
   H     4.2308769  15.8511201  16.8271002
   O     5.6601900  17.4662000   6.3112200
   H     5.6372042  17.5730698   7.2750408
   H     5.4156295  16.5324853   6.2149543
   O    14.9645000  12.1554000   8.9967900
   H    15.0399000  12.1475000   9.9633000
   H    15.1142808  11.2204907   8.7860522
   O    13.0509000  18.4148000  11.0460000
   H    13.5011902  17.9682081  10.3120419
   H    13.7756997  18.5503699  11.6762272
   O    16.9021000  13.9528000  14.2660000
   H    17.3616412  14.5246891  13.6624565
   H    16.0801370  14.3924975  14.4491476
   O    11.1332000   1.0386600  17.0569000
   H    12.0953315   1.1018032  16.9509943
   H    10.7884000   1.8463200  16.6860000
   O    13.6838000   6.3486400  19.1115000
   H    13.9523680   5.7690756  18.3815162
   H    13.2449632   7.0941796  18.6727598
   O     2.5594200   5.6217100   3.2635800
   H     2.6023247   6.1458775   4.0786307
   H     2.3423500   4.7348000   3.5409700
   O    18.8109000   8.1520900  10.1565000
   H    18.0366000   7.8862800  10.6463000
   H    19.4359045   8.1279572  10.8715433
   O     7.4729100  18.5241000   2.1529700
   H     7.0954488  17.7586117   2.6138938
   H     6.7717200  19.1917000   2.1066100
   O    11.6041000  10.9518000  18.4560000
   H    11.9575524  11.6510340  17.8841230
   H    10.8708432  11.2666729  19.0074431
   O    13.2195000  13.3136000   1.2233000
   H    13.7504222  14.0295578   1.6059566
   H    12.5656183  13.8236494   0.7201217
   O    13.1671000  12.9331000  16.6509000
   H    13.4391198  13.7615197  16.2258987
   H    14.0145955  12.4612409  16.6503030
   O     9.0269700   1.0233000  10.5596000
   H     8.8169602   1.5714301  11.3318366
   H     8.8597535   1.5174158   9.7656301
   O    11.3759000   3.2814800  13.9129000
   H    10.5144195   3.1943358  13.4756847
   H    11.7673000   2.4276100  13.7520000
   O     3.6534700   9.8342700   8.2000400
   H     3.2351235   9.0217461   7.8749382
   H     2.9985911  10.1930825   8.7873110
   O    15.8437000   9.7360500  12.3611000
   H    15.2270000  10.3359000  11.9197000
   H    15.9633457   9.0324502  11.7041888
   O     9.6647100   3.2976700   8.4947900
   H    10.6271655   3.3746454   8.5878181
   H     9.4161353   3.5650952   7.5961274
   O     3.3642600   6.3311900  10.8411000
   H     3.3859200   5.3899500  10.6717000
   H     4.2588244   6.6509620  10.8404805
   O    17.3944000  18.5316000   5.9334400
   H    17.4072000  17.5995000   5.7173400
   H    16.6475000  18.9838000   5.5471300
   O     4.3007200  20.0917000  11.8417000
   H     4.7723391  19.8460467  12.6529521
   H     3.4976087  19.8243761  12.2730353
   O     6.5704100   2.2412500  12.6703000
   H     6.4904610   1.4326344  13.2000632
   H     5.7946100   2.7191900  12.9797000
   O     6.0697100  18.1330000   9.1458500
   H     5.2757900  18.0432000   9.6760100
   H     6.5274400  17.2925000   9.2708100
   O    18.0005000   0.4382630  19.6545000
   H    18.1090566   1.3820393  19.6531945
   H    18.7688552  -0.0622920  19.9026432
   O     0.9488050   8.5405700  18.7376000
   H     0.5459761   8.6115910  19.5950292
   H     0.3175480   8.9499800  18.1424000
   O    12.0333000   0.7295330  13.9506000
   H    11.4305219   0.1208410  14.4056305
   H    12.8680310   0.2827409  13.8724912
   O    11.7921000  18.2106000   0.6531850
   H    12.2891559  18.9938073   0.9367725
   H    10.8899383  18.5611944   0.5892485
   O     1.7740500  19.4836000  13.3805000
   H     0.8414295  19.3432104  13.6072376
   H     1.9430491  19.8352669  12.4924292
   O    16.7020000  17.7495000  16.2777000
   H    17.2996821  18.4137334  16.6551523
   H    15.8339114  18.1269122  16.1971881
   O    18.1235000  17.1106000   1.0172000
   H    17.1952259  16.9983399   1.2752794
   H    18.2577000  16.7254000   0.1405380
   O     7.0865400   4.4598300  18.4094000
   H     7.8849560   4.8325904  18.0038367
   H     7.3956695   3.5685304  18.6350637
   O    13.6744000  13.7863000   6.9804300
   H    13.0129339  14.4284729   7.2820533
   H    14.0718902  13.4170775   7.7845297
   O    15.9469000   9.5497300   4.4449200
   H    15.4291628   9.8953396   5.1625565
   H    16.0945766  10.3539201   3.9612156
   O    16.8533000   5.5917900   2.4810100
   H    16.6252572   4.7024824   2.1679148
   H    16.0304000   6.0559800   2.3233400
   O    11.5744000  12.7162000  10.6236000
   H    11.3480000  12.0699000   9.9424500
   H    10.7084353  13.0679529  10.8829743
   O     9.5499300  19.8068000   0.6635100
   H     9.6841534  20.2267312   1.5050216
   H     8.6140825  19.5531394   0.6361994
   O     9.4145900   8.9951000   6.1888900
   H     9.4501034   8.1953602   6.7366629
   H     8.5334126   9.3695241   6.3445599
   O    17.7926000   8.1739000   7.6234400
   H    17.4523000   7.2935000   7.4481700
   H    18.4614877   7.9326451   8.2832016
   O    18.8486000  19.2327000  17.4422000
   H    18.4670006  19.6354834  18.2378428
   H    19.2459642  18.4260299  17.7486065
   O     6.9091500   5.0791300   8.5239300
   H     6.4231100   4.6571400   9.2276300
   H     7.1516009   4.3790932   7.8977782
   O     2.2686000  10.3130000   5.1290900
   H     2.0612000   9.4478800   4.7697600
   H     1.4559240  10.5451055   5.6050992
   O    12.1132000   8.2919200   2.2078700
   H    12.3809209   9.2240243   2.1876924
   H    12.0980707   8.1309957   3.1643085
   O    16.0827000   4.7402300   9.9972900
   H    16.0804530   4.6556718   9.0510634
   H    15.3042243   4.2397161  10.2877404
   O     0.7135870   5.6127800  18.0389000
   H     1.3316922   5.0308355  18.4652644
   H     0.9585562   6.4087384  18.5362332
   O     7.4897600   7.5454600   3.7810200
   H     6.6265400   7.9713200   3.8574500
   H     7.9981768   7.9233394   4.4889886
   O    18.6310000   1.0153000  15.2293000
   H    18.7352086   0.5597047  16.0792844
   H    19.3313041   1.6790001  15.3291822
   O     9.0010200  11.3659000  12.1926000
   H     8.6872000  10.4761000  12.3771000
   H     8.3718790  11.6884760  11.5285018
   O     8.8150300   4.8742200   4.0056400
   H     8.3166255   5.6413425   3.7494836
   H     8.8732400   4.3420000   3.2096900
   O     6.0727700  18.3483000  15.8668000
   H     6.3594532  17.4494001  16.0919485
   H     5.1158338  18.3005505  16.0181051
   O     0.0184458   3.0606200  19.4540000
   H     0.2052958   3.7517435  20.1084734
   H     0.8582844   2.5761055  19.4825801
   O    15.3776000  17.3979000   1.5375900
   H    14.9050987  16.8527062   2.1556565
   H    15.3230814  16.9367197   0.6859795
   O    18.0373000  16.6135000  11.7767000
   H    17.2859850  17.0497539  12.1610284
   H    18.0021000  16.6536000  10.8094000
   O     5.6744600  16.4608000   2.5734400
   H     4.7766274  16.3680214   2.9286706
   H     5.5153300  16.4084000   1.6257000
   O    16.0313000   1.4050100  10.8151000
   H    16.9106000   1.0229200  10.6773000
   H    15.6880041   1.2171598   9.9275414
   O    12.4749000  10.0086000  11.9140000
   H    12.5831000  10.1354000  12.8622000
   H    12.3566931  10.8829882  11.5619028
   O     4.2539200  15.4782000  12.4936000
   H     4.4066357  14.7707596  13.1394375
   H     5.0500356  15.9887613  12.5831937
   O     3.2816400  12.9370000   2.4580200
   H     2.9885589  13.4321439   3.2389400
   H     4.1059447  13.4109981   2.2663230
   O    17.6940000  13.6204000  10.4524000
   H    18.1754000  13.5754000  11.2890000
   H    17.1800465  14.4338474  10.5750993
   O    16.2594000   4.1024700   4.8690300
   H    15.4021544   3.6968515   4.6653055
   H    16.4724000   4.5573500   4.0495800
   O     6.1141700   6.8469800  10.9439000
   H     6.1831150   7.0751472  11.8841587
   H     6.9314400   6.3815600  10.7078000
   O     4.5797900  19.9151000   5.1921400
   H     4.6210574  19.1649065   5.8056600
   H     4.4452722  19.7076060   6.1093920
   O    15.1340000  12.4629000  11.9013000
   H    16.0283000  12.7629000  12.1096000
   H    14.7190733  13.3388564  11.8634018
   O     2.8317600   9.4714600  14.9216000
   H     1.9325545   9.8197594  15.0265624
   H     2.6440350   8.5245823  14.8263008
   O    13.2435000  18.9827000   5.7548400
   H    14.0548651  19.5056494   5.6593905
   H    13.1595309  18.6056059   4.8869407
   O    16.7297000  15.9699000   8.6524600
   H    17.3716512  16.6618933   8.5450179
   H    17.0059000  15.1867000   8.1560100
   O    14.4423000  11.0521000  18.6459000
   H    13.5708912  10.9504440  19.0103347
   H    14.9705924  10.4743467  19.2186201
   O     7.4141900   3.6019500   6.1185700
   H     7.8280300   4.1932800   5.4719500
   H     7.3882088   2.7113092   5.7351850
   O    12.1312000   8.4511600  17.6158000
   H    12.0412363   9.3645351  17.9297308
   H    11.2222000   8.1759500  17.4362000
   O    12.2094000   8.1739300  14.2312000
   H    11.8273553   8.0604822  15.0935639
   H    12.1699136   7.2630609  13.9000528
   O    12.8393000   8.7728400   8.1490100
   H    12.2168460   9.5062045   8.0239996
   H    13.0573241   8.3337456   7.3120144
   O     9.5394000  17.2791000  13.8542000
   H     9.6046500  18.2337000  13.9955000
   H    10.4059000  16.8594000  13.8299000
   O     4.6474400   0.9740090  17.5882000
   H     4.2955135   0.3763245  16.9100989
   H     3.8644357   1.3655612  18.0059214
   O    16.3507000   9.3928000   0.1096410
   H    16.1056153   8.8466421   0.8728874
   H    17.2646079   9.6393553   0.3214970
   O    16.6363000  11.5120000   2.5609600
   H    17.5611788  11.2961519   2.3637068
   H    16.1969142  11.5619481   1.6976261
   O     2.2711700  16.3803000  14.1107000
   H     2.2022780  17.3217472  13.8874713
   H     2.8789879  16.0438036  13.4627590
   O     9.0504400   3.3169000  12.3954000
   H     9.0592500   4.0941200  11.8289000
   H     8.1311800   3.0496700  12.4297000
   O    17.9667000   4.1149100  16.1630000
   H    17.6136000   4.6964500  16.8431000
   H    17.9707000   4.6741500  15.3763000
   O    15.3446000  16.4698000  18.8626000
   H    15.9126788  16.3205556  18.0906462
   H    14.5778687  16.9826481  18.5625834
   O     1.9918200  17.6987000   8.5265800
   H     2.4313600  17.6759000   9.3766800
   H     2.4832152  18.4492588   8.1576730
   O     1.9959000   6.7432100  15.3572000
   H     2.4497247   5.8928438  15.2484782
   H     1.3231428   6.6552423  16.0504239
   O    15.3452000   7.6891900   2.2463800
   H    15.3389576   8.2022162   3.0695842
   H    14.4116832   7.7139608   1.9840198
   O     9.2791800  18.9112000  17.0749000
   H     9.9327762  19.4893746  17.4504343
   H     9.2957600  19.0807000  16.1338000
   O     5.0798100  20.0935000   1.7145200
   H     4.3362646  19.7190070   2.2123105
   H     4.1431773  20.1890058   1.5876428
   O    10.2388000  10.5636000   8.7123600
   H     9.7271300   9.8706900   9.1508400
   H    10.1472110  10.2807428   7.7890489
   O     2.1370300  13.6043000   5.0095300
   H     1.3046700  13.2573000   4.6984500
   H     1.8469075  13.9893734   5.8512232
   O    18.2991000  19.8284000  10.8769000
   H    18.2928000  19.1815000  11.5852000
   H    18.3136000  19.3775000  10.0238000
   O    11.6349000   1.4244200   3.6681500
   H    11.3271199   0.5062981   3.6113726
   H    12.5656381   1.3566180   3.4035190
   O    10.5400000   2.4722000   6.2083600
   H    10.5055404   1.6100826   6.6516050
   H    10.6386047   2.2120970   5.2999969
   O     5.0716100  12.8308000  13.3853000
   H     6.0161136  13.0434514  13.4452369
   H     5.1223822  11.8773901  13.2140347
   O     5.9135700   0.8482500   8.5868000
   H     6.1773491   0.1067656   9.1538287
   H     6.6656771   1.0081870   7.9954836
   O     9.0679900   9.5132700   1.8490200
   H     8.5288254   9.1349964   2.5611370
   H     9.9167000   9.0709100   1.7730900
   O     6.3212800   7.9940300  18.7092000
   H     6.4789788   7.3490741  19.4163513
   H     5.7045319   8.6262624  19.1102039
   O    12.8108000   4.7814800   1.3807800
   H    13.2140160   5.4150370   0.7668399
   H    12.5900777   4.0456589   0.8218981
   O     4.2797300   9.3596600  19.8456000
   H     3.6581163   8.7473177  20.2693138
   H     3.7581015   9.8026975  19.1867211
   O    14.1710000   1.8949300   3.0290700
   H    14.7495952   1.3279565   3.5626135
   H    14.7357766   2.5884274   2.6535853
   O    16.0192000   2.6165800  18.7899000
   H    16.5447638   3.4296983  18.7305590
   H    15.0853834   2.8727912  18.7329575
   O     1.6909800  17.1433000  18.6445000
   H     1.3135364  16.7432948  19.4435195
   H     1.8358200  16.4152000  18.0504000
   O    18.3929000  14.2418000   2.9237100
   H    18.4640131  13.4808998   3.5210993
   H    17.4553000  14.1937000   2.6928500
   O    10.0175000   6.5473800   0.7314030
   H    10.2711071   5.7834675   1.2360030
   H    10.6962532   7.2168367   0.9103496
   O     6.2730500  10.5761000   2.4448900
   H     5.7742700  10.3515000   1.6664000
   H     5.6469300  10.9826000   3.0387700
   O     9.8617900  17.5905000   8.3693900
   H    10.3295265  16.7789237   8.1174642
   H    10.1007585  17.5555565   9.3088436
   O    11.6687000   4.2790100  16.4978000
   H    11.4647068   3.9630753  15.6036680
   H    10.9040848   4.7252597  16.8423647
   O    10.9007000  15.2794000  16.8877000
   H    11.1921516  14.8185115  16.1097940
   H    10.0177538  15.4965939  16.5498645
   O    14.5777000  19.9551000   8.6134500
   H    13.8096428  20.1759928   9.1631723
   H    14.6777696  18.9931908   8.6883955
   O    16.4581000   7.1273700  11.3027000
   H    16.0202461   6.9428665  12.1483610
   H    16.0776802   6.3589103  10.8492130
   O    18.9528000  10.4737000   6.4370100
   H    19.0692783  10.5778019   7.3943478
   H    18.3577924   9.7093042   6.3863641
   O     2.4906800   1.3352600  19.4683000
   H     2.1074600   0.4445674  19.4949298
   H     3.3441867   1.5164403  19.8440659
   O    18.1041000  11.4880000  12.6850000
   H    17.3039269  10.9863707  12.4636607
   H    17.8552950  12.1760569  13.3218468
   O     7.7319700  13.0722000  13.6780000
   H     7.7583556  13.1360282  14.6455380
   H     8.3488600  12.3953000  13.3822000
   O     9.3035700  12.3191000   3.4947800
   H     9.2611111  13.1155920   2.9427856
   H     8.7691200  11.6180000   3.1264700
   O     2.2030900  12.7384000  12.4534000
   H     3.1111467  12.9272984  12.7373901
   H     1.9731202  12.1842023  13.1899316
   O     9.7561900   8.6286100  10.5623000
   H    10.6044000   8.8069900  10.9695000
   H     9.0701126   8.6087030  11.2477208
   O     5.9873200  15.9554000  17.7626000
   H     5.5005900  16.4669000  18.4057000
   H     6.5707493  15.3880592  18.2904587
   O    14.1420000  18.7097000  15.5181000
   H    13.7250858  18.1534541  16.1946153
   H    13.9388105  19.6020010  15.8396789
   O     9.3742100   5.7134000  17.7819000
   H     9.5760218   5.6991577  18.7305671
   H     9.2914200   6.6502300  17.6247000
   O    18.5393000  18.5042000   8.3535400
   H    18.2413000  18.6721000   7.4615700
   H    19.4785162  18.2620502   8.3652238
   O    13.7174000   7.5170600  10.6657000
   H    13.2852000   8.3276200  10.9218000
   H    14.5236659   7.8038263  10.2089719
   O    14.3402000  15.3465000  15.3756000
   H    14.7331712  15.9428679  16.0020335
   H    13.8601735  15.9344737  14.7716451
   O    12.8351000  17.1210000   3.4120500
   H    12.4311310  17.1570131   2.5309074
   H    12.0070643  16.9108108   3.8714816
   O     8.8921100  13.8635000   8.3421100
   H     8.6316746  13.0470246   8.7964682
   H     8.5184551  13.9111815   7.4482372
   O     4.5625600   3.9857500  12.7209000
   H     3.9268351   4.0565925  13.4501018
   H     5.1694800   4.7175400  12.8921000
   O    10.3414000  19.1748000   3.5338200
   H    10.3416935  18.7316208   4.3966596
   H     9.4708600  18.9039000   3.2164200
   O     0.2475660   4.2761000   5.5710900
   H    -0.0875818   3.7527906   6.3158874
   H     0.6464760   5.0933300   5.8996800
   O     4.6457700   4.9679600   1.7173600
   H     3.9690853   5.4055435   2.2204688
   H     5.3680700   5.6016800   1.7746500
   O     9.8694100  10.2863000  15.2287000
   H     9.8501101  11.0011980  15.8840232
   H    10.6216307  10.4074841  14.6283846
   O    14.3458000  16.9453000   8.4004800
   H    14.1546221  17.4521934   7.5958620
   H    15.2744597  16.6757045   8.3242604
   O    18.5251000   1.4170200   2.9310000
   H    18.3871101   1.2164980   3.8699621
   H    19.1987456   0.8142729   2.5791511
   O    17.6108000   1.6065500   5.7384400
   H    17.4568192   2.5223656   5.4583118
   H    16.6913265   1.3341119   5.8842001
   O     6.4599600  19.7138000  13.3713000
   H     7.0320800  19.3628000  12.6801000
   H     6.3312973  19.2192664  14.1957892
   O    18.2317000  18.7926000  13.9718000
   H    18.2239364  19.5954808  14.4795619
   H    17.8822000  18.1379000  14.5733000
   O     8.9151100  11.6811000  19.8408000
   H     8.7563100  10.9489000  20.4477367
   H     8.5617748  11.3834685  18.9878816
   O     0.1841270  15.4192000  15.8055000
   H    -0.6648431  15.1864949  15.3980712
   H     0.7925460  15.6819000  15.1209000
   O     0.0516034   9.1799100  13.6330000
   H     0.7615527   8.9927271  13.0301446
   H    -0.3412789  10.0209000  13.4249000
   O     2.8167500  16.2366000   3.4586100
   H     2.5775533  15.6312847   4.1506204
   H     2.1548000  16.0747000   2.7947000
   O     7.0295100  10.5569000   6.7177100
   H     6.4057900  10.6513000   5.9813400
   H     6.4982543  10.1484764   7.4190356
   O    10.2655000  16.6223000   4.7652100
   H     9.6024614  16.9088768   5.4126307
   H     9.8553449  15.9445619   4.2054386
   O    15.8939000  19.5101000   3.1490200
   H    16.8254000  19.7015000   3.1047200
   H    15.7195446  18.9095082   2.4339049
   O     4.1065900   2.3186400   6.6083600
   H     5.0334362   2.5393034   6.7904696
   H     3.6977700   2.4468700   7.4597300
   O    18.7094000  10.7387000   9.3685700
   H    18.5821357   9.8317069   9.6880499
   H    18.0811867  11.2688537   9.8835313
   O     4.8210200   8.4231700   4.0832900
   H     4.1964100   8.5605700   3.3600500
   H     4.3989712   7.7814856   4.6757561
   O    10.8145000  14.1574000  14.2327000
   H    10.2513699  14.1124197  13.4441816
   H    11.3460463  13.3573446  14.3678665
   O    12.4107000  16.1903000  13.5081000
   H    12.2089000  16.5437000  12.6367000
   H    12.0708699  15.3126649  13.6376069
   O    18.5823000   8.3180200  16.2868000
   H    18.7444000   8.5652900  15.3808000
   H    17.7786393   7.7754844  16.2606348
   O     9.8299700   2.9092200   2.2097800
   H    10.2150666   2.9749892   1.3438268
   H    10.5065998   2.4421288   2.7244623
   O     0.6473460  19.5301000   1.6274300
   H     0.2614690  18.6429000   1.6117200
   H     1.4632914  19.3938240   2.1339495
   O     8.6070700   8.1864200  17.0104000
   H     8.4944300   9.1154400  16.7952000
   H     7.9523557   8.0137943  17.7049860
   O     3.0627000   4.2458800  14.9376000
   H     3.8657213   4.2111878  15.4806039
   H     2.4628424   3.5678327  15.2859140
   O    12.2074000   9.8567100   4.7929700
   H    11.2909065   9.8821715   5.1096582
   H    12.2028857  10.4026346   3.9911932
   O     0.2080590   6.5572900   2.1994000
   H    -0.5456604   6.0179030   1.9132727
   H     0.9652273   6.0240626   2.4879563
   O    13.6280000  14.7050000  10.8144000
   H    13.0178243  14.0018228  10.5421362
   H    13.6023584  15.3373214  10.1058718
   O    15.8235000   5.5686500   7.1856600
   H    15.1687598   6.2420696   7.0431070
   H    15.9386936   5.0321223   6.3858047
   O     3.5426700   4.3861800  19.1782000
   H     4.0720900   4.6631100  19.9406642
   H     4.0300836   4.5939427  18.3656960
   O     8.2637000   1.9248600  18.7566000
   H     9.1179767   1.7783888  19.1455184
   H     7.8167500   1.0822800  18.8839000
   O     4.4378300  17.3066000  19.4831000
   H     4.7059700  18.0996000  19.9606877
   H     3.5157400  17.4420000  19.2193000
   O     5.5239300   3.2398100   9.8426800
   H     5.5904730   2.9560656  10.7678617
   H     5.7747887   2.4591416   9.3629647
   O    17.0922000  13.3798000   7.6902900
   H    18.0024773  13.0815905   7.8431505
   H    16.4984117  12.9416098   8.2885414
   O    18.5685000   8.0530400   4.1348500
   H    17.6665000   8.2759900   4.3381000
   H    18.6331026   7.3991345   3.4213136
   O     9.3376000   0.0016415  14.4925000
   H     8.5673987   0.1794714  13.9303021
   H     9.3513812   0.7593715  15.0979382
   O    14.9988000   5.7866300  13.5647000
   H    14.0483830   5.9441669  13.4516080
   H    15.1298000   6.0345900  14.4838000
   O     7.5851700   4.8572400  15.5540000
   H     6.9057800   4.2125100  15.7134000
   H     7.4824416   5.5480678  16.2271299
   O    18.8981000   9.7125700   1.2850200
   H    19.5753675  10.4068772   1.2971137
   H    19.0106555   9.0930011   2.0228314
   O     1.0792100  15.1942000   7.3607100
   H     1.3655700  16.1178000   7.4060800
   H     0.2691681  15.3205854   6.8422903
   O    11.7469000  11.2353000   2.4445000
   H    12.2845000  11.9210000   2.0425100
   H    10.8159000  11.4590000   2.4894500
   O     5.9317900   9.6671100   9.5046200
   H     5.1018658   9.6225269   9.0044818
   H     5.8216287   8.8503085   9.9770602
   O     7.8737700  13.2010000   5.9175800
   H     8.4906243  12.8837376   5.2395421
   H     7.4650800  12.4130000   6.2568600
   O    14.8653000   8.6738900  14.9150000
   H    15.2022225   9.0215527  14.0976177
   H    13.9367032   8.5030186  14.6927141
   O    17.9402000  15.8698000   5.1753500
   H    16.9786000  15.7682000   5.1843100
   H    18.1530899  15.5617935   4.3022464
   O     1.8199600  11.4414000   0.9739280
   H     2.3230483  12.0608644   1.5253499
   H     1.5763075  12.0126978   0.2288426
   O     3.1569000   7.2359500   7.9180200
   H     3.1373644   6.7927319   8.7806185
   H     3.6317200   6.7369400   7.2527100
   O    14.2665000  11.0976000   6.3516700
   H    13.9947357  12.0246725   6.4387384
   H    13.4895037  10.6320617   6.0046097
   O    10.9192000  14.9379000   0.0234330
   H    11.3141000  15.8038000   0.0546292
   H    10.4272985  15.0956558  -0.7738411
   O     1.0695300  12.2207000  15.4671000
   H     0.7631383  13.1337458  15.3514649
   H     0.2776921  11.9272112  15.9443391
   O    18.1707000  10.9274000  16.5318000
   H    18.2657289   9.9729971  16.3869389
   H    17.2099732  11.0608898  16.5409993
   O     1.4932900   1.1707600  11.2404000
   H     0.7058192   0.7985612  10.8611142
   H     1.1708600   1.8292900  11.8651000
   O     1.8233100   8.5450700  11.7004000
   H     2.3652706   7.7781188  11.5569963
   H     2.1518679   9.3402693  11.2525073
   O     9.0069900   2.3422200  15.6477000
   H     8.9576502   3.2597902  15.3370064
   H     8.4085089   2.4067911  16.4083254
   O    13.3803000   0.5350140   0.6510630
   H    13.7632697   1.0449929   1.3819226
   H    14.1262000   0.1201410   0.1992110
   O    11.1406000   5.3616200   7.0880000
   H    10.3166115   5.8142773   7.3268396
   H    11.0273876   4.5693625   6.5399023
   O     2.6920400  13.3376000  18.0041000
   H     2.9701430  14.1030248  17.5149338
   H     1.9108918  13.0644944  17.5374944
   O     2.6295900   2.9289200   4.4250800
   H     3.0018371   2.5680231   5.2448883
   H     1.6765200   2.8609800   4.5902600
   O     8.9969200   7.0042800   8.1936600
   H     9.2400700   7.4594500   8.9951300
   H     8.2341822   6.4486250   8.4181118
   O    16.2849000   3.0956300   1.8551100
   H    16.2874205   3.0248348   0.9077549
   H    16.9422519   2.4337202   2.1209371
   O    11.3019000  15.4511000   7.1303000
   H    11.2694994  15.8102724   6.2298304
   H    10.7590000  14.6690000   7.2080100
   O    10.5170000  17.1871000  10.9749000
   H    11.3715000  17.6405000  10.9229000
   H     9.9266095  17.7630980  11.4462442
   O     4.7212800  11.3998000   4.8808800
   H     4.0061363  12.0104670   4.6430664
   H     4.1374513  10.6891949   5.1892379
   O     9.5315700  14.6194000  11.9567000
   H     9.8585143  15.4811555  11.6544007
   H     8.5692750  14.6061833  12.0780002
   O    16.4047000   3.2221900  13.1089000
   H    15.9739383   4.0638787  13.2011197
   H    16.1710000   2.8931200  12.2350000
   O    15.5236000  16.3379000  12.5190000
   H    14.8661000  15.8526000  12.0193000
   H    14.9304725  16.8388147  13.0665255
   O     0.0644131  14.5052000  12.9584000
   H     0.9643906  14.4776773  12.6554430
   H    -0.3007358  15.3280720  12.5972241
   O     7.1090400  19.6364000  18.3745000
   H     6.2568317  19.9580343  18.1046993
   H     7.4350800  19.1546000  17.6181000
   O     4.6538700   7.4706300  16.3191000
   H     5.2841100   7.3602800  17.0408000
   H     3.8097316   7.1352867  16.6595046
   O    14.9638000   1.0334700   6.0249900
   H    14.9311124   0.7793677   6.9605452
   H    14.4342377   1.8457452   5.9990521
   O    11.5348000   5.8868000   9.9714300
   H    12.0023076   5.1619155   9.5733356
   H    12.1940726   6.5923082   9.8791378
   O     3.2048100  13.3264000   8.1827600
   H     2.5165676  14.0028507   8.2809277
   H     2.7892021  12.5631794   7.7990096
   O     8.0911700  14.9184000  16.1415000
   H     7.4395438  15.2657804  16.7391706
   H     8.0480544  15.3528709  15.2977725
   O    17.0950000   5.4095100  18.4754000
   H    18.0207000   5.5735200  18.6314000
   H    16.6272697   6.1849656  18.1883515
   O     3.2650200  19.0755000  16.0326000
   H     2.7102921  18.3530398  16.3661089
   H     2.7498757  19.3536406  15.2591892
   O    12.2788000   5.6569200  12.7975000
   H    12.0030894   4.7789767  13.1042561
   H    11.9445400   5.7370662  11.8904460
   O     5.1413100  14.4630000   5.8928200
   H     5.9903100  14.0265000   6.0174500
   H     4.5686300  14.2744000   6.6369500
   O     7.4017200  15.8033000  10.1104000
   H     8.0634960  15.4625339   9.4884426
   H     6.7283800  15.1303000  10.0719000
   O     4.9623200   5.7226600   6.0893600
   H     4.4902204   4.9707515   5.7513430
   H     5.7786100   5.3336700   6.3978700
   O    14.3542000   4.9814100  16.5795000
   H    14.8751785   4.2729863  16.1700890
   H    13.4811000   4.6226600  16.4643000
   O     3.9422700  17.7997000  10.5677000
   H     4.0559148  18.6140227  11.0823489
   H     3.9173992  17.1103899  11.2209480
   O    11.5870000   5.4958100   4.1498200
   H    11.7906137   4.9877215   3.3490156
   H    10.6235000   5.4598500   4.1518700
   O     8.4085700  18.2657000   6.0200500
   H     7.4595746  18.0704114   6.0666343
   H     8.7455840  18.2721252   6.9082393
   O     8.4454900  12.0399000  17.0163000
   H     8.5590200  12.9431000  16.7113000
   H     7.7083900  11.6952000  16.5078000
   O     0.0680216   3.1923800  12.9675000
   H    -0.8171830   3.4316965  13.2157751
   H     0.6103070   3.9914000  13.0543000
   O    15.5314000  19.6515000  18.7826000
   H    15.7841954  18.7512869  18.6146393
   H    16.3710000  19.2546102  19.0203000
   O     0.9688810   1.0563800   5.6323100
   H     0.1046046   1.3970993   5.9113022
   H     1.1430359   0.5481638   6.4158190
   O     7.3580200  11.9445000   9.9562200
   H     6.7757596  11.1701594   9.9085810
   H     6.7267392  12.6377978  10.1089379
